Version 4
SHEET 1 1172 820
WIRE 448 -48 304 -48
WIRE 448 -16 320 -16
WIRE 448 16 336 16
WIRE 192 96 -144 96
WIRE -144 112 -144 96
WIRE -144 128 -208 128
WIRE 176 128 -144 128
WIRE -144 144 -144 128
WIRE 304 144 304 -48
WIRE 304 144 272 144
WIRE 704 144 592 144
WIRE 768 144 704 144
WIRE 832 144 768 144
WIRE 896 144 832 144
WIRE 960 144 896 144
WIRE 1024 144 960 144
WIRE 1088 144 1024 144
WIRE 1152 144 1088 144
WIRE 192 160 192 96
WIRE 320 160 320 -16
WIRE 320 160 192 160
WIRE 384 160 320 160
WIRE 384 176 384 160
WIRE 176 192 176 128
WIRE 336 192 336 16
WIRE 336 192 176 192
WIRE 384 192 336 192
WIRE 384 208 384 192
WIRE 624 208 592 208
WIRE 704 208 704 144
WIRE 432 224 272 224
WIRE 272 240 272 224
WIRE 688 240 592 240
WIRE 768 240 768 144
WIRE -144 256 -208 256
WIRE 384 256 384 240
WIRE 384 256 -144 256
WIRE -144 272 -144 256
WIRE 384 272 352 272
WIRE 752 272 592 272
WIRE 832 272 832 144
WIRE 272 288 272 272
WIRE 336 288 272 288
WIRE 384 304 272 304
WIRE 816 304 592 304
WIRE 896 304 896 144
WIRE 352 320 352 272
WIRE 352 320 272 320
WIRE 272 336 272 320
WIRE 336 336 336 288
WIRE 384 336 336 336
WIRE 880 336 592 336
WIRE 960 336 960 144
WIRE 944 368 592 368
WIRE 1024 368 1024 144
WIRE 384 384 384 368
WIRE 432 384 432 224
WIRE 432 384 384 384
WIRE 1008 400 592 400
WIRE 1088 400 1088 144
WIRE 1072 432 592 432
WIRE 1152 432 1152 144
SYMBOL arduino -48 128 R0
SYMATTR InstName X1
SYMBOL 74hc4051 496 224 R0
SYMATTR InstName X2
SYMBOL res 720 192 R90
WINDOW 0 0 56 VBottom 2
WINDOW 3 32 56 VTop 2
SYMATTR InstName R1
SYMATTR Value 51
SYMBOL res 784 224 R90
WINDOW 0 0 56 VBottom 2
WINDOW 3 32 56 VTop 2
SYMATTR InstName R2
SYMATTR Value 100
SYMBOL res 848 256 R90
WINDOW 0 0 56 VBottom 2
WINDOW 3 32 56 VTop 2
SYMATTR InstName R3
SYMATTR Value 1000
SYMBOL res 912 288 R90
WINDOW 0 0 56 VBottom 2
WINDOW 3 32 56 VTop 2
SYMATTR InstName R4
SYMATTR Value 10000
SYMBOL res 976 320 R90
WINDOW 0 0 56 VBottom 2
WINDOW 3 32 56 VTop 2
SYMATTR InstName R5
SYMATTR Value 100000
SYMBOL res 1040 352 R90
WINDOW 0 0 56 VBottom 2
WINDOW 3 32 56 VTop 2
SYMATTR InstName R6
SYMATTR Value 1000000
SYMBOL res 1104 384 R90
WINDOW 0 0 56 VBottom 2
WINDOW 3 32 56 VTop 2
SYMATTR InstName R7
SYMATTR Value 5100000
SYMBOL res 1168 416 R90
WINDOW 0 0 56 VBottom 2
WINDOW 3 32 56 VTop 2
SYMATTR InstName R8
SYMATTR Value 10000000
SYMBOL servo 464 -16 R90
SYMATTR InstName X3
TEXT -232 192 VCenter 2 ;test terminals
TEXT 712 112 Left 2 ;auto-ranging ohmmeter circuit
TEXT 512 -96 Center 2 ;gripper
