Version 4
SHEET 1 1096 680
WIRE 800 -272 576 -272
WIRE 944 -272 800 -272
WIRE -48 -224 -272 -224
WIRE 800 -208 608 -208
WIRE 944 -208 800 -208
WIRE -80 -192 -272 -192
WIRE -48 -192 -48 -224
WIRE 464 -176 464 -192
WIRE 704 -176 464 -176
WIRE -192 -160 -272 -160
WIRE 784 -160 672 -160
WIRE 608 -128 608 -208
WIRE 784 -128 608 -128
WIRE -192 -112 -192 -160
WIRE -48 -112 -192 -112
WIRE -48 -96 -48 -112
WIRE 432 -96 320 -96
WIRE 576 -96 576 -272
WIRE 784 -96 576 -96
WIRE 704 0 704 -176
WIRE 784 0 704 0
WIRE 432 16 432 0
WIRE 704 16 432 16
WIRE 608 32 608 -128
WIRE 784 32 608 32
WIRE 576 64 576 -96
WIRE 784 64 576 64
WIRE 576 96 576 64
WIRE 576 96 464 96
WIRE 432 112 432 96
WIRE 688 112 432 112
WIRE 672 160 672 -160
WIRE 672 160 464 160
WIRE 704 160 704 16
WIRE 784 160 704 160
WIRE 608 192 608 32
WIRE 784 192 608 192
WIRE 576 224 576 96
WIRE 784 224 576 224
WIRE 464 304 464 288
WIRE 464 304 352 304
WIRE 688 320 688 112
WIRE 784 320 688 320
WIRE -304 336 -304 192
WIRE -48 336 -304 336
WIRE -48 352 -48 336
WIRE 608 352 608 192
WIRE 784 352 608 352
WIRE -448 368 -448 192
WIRE -48 368 -448 368
WIRE -48 384 -48 368
WIRE 576 384 576 224
WIRE 784 384 576 384
WIRE -416 432 -416 192
WIRE -272 432 -272 192
WIRE -272 432 -416 432
WIRE 352 432 352 304
WIRE 352 432 -272 432
WIRE -480 464 -480 192
WIRE -336 464 -336 192
WIRE -336 464 -480 464
WIRE 320 464 320 -96
WIRE 320 464 -336 464
FLAG 944 -208 PWR+5V
FLAG 944 -272 0
FLAG -272 -224 TXD
FLAG -272 -192 RXD
FLAG -272 -160 SER_GND
SYMBOL nucleo-f446re -32 -128 R0
SYMATTR InstName X1
SYMBOL pot -448 144 R0
SYMATTR InstName X3
SYMBOL pot -304 144 R0
SYMATTR InstName X4
SYMBOL servo 800 -128 R90
SYMATTR InstName X2
SYMBOL servo 800 32 R90
SYMATTR InstName X5
SYMBOL servo 800 192 R90
SYMATTR InstName X6
SYMBOL servo 800 352 R90
SYMATTR InstName X7
SYMBOL cap 784 -272 R0
SYMATTR InstName C1
SYMATTR Value 100µF
TEXT 944 288 Right 2 ;AXIS 0 - TIM3 CH2
TEXT 944 128 Right 2 ;AXIS 1 - TIM3 CH1
TEXT 944 -32 Right 2 ;AXIS 2 - TIM3 CH3
TEXT 944 -192 Right 2 ;AXIS 3 - TIM3 CH4
TEXT -304 64 Center 2 ;POT AXIS 1
TEXT -448 64 Center 2 ;POT AXIS 0
TEXT -376 -256 Left 2 ;DEBUGGING UART
